# Created by the Bilbao Crystallographic Server
# http://www.cryst.ehu.es
# Date: 05/08/2019 06:35:39

# Cm.vasp -- non-magnetic

data_IH6IRSq2
_audit_creation_date               2019-08-05
_audit_creation_method             "Bilbao Crystallographic Server"
_symmetry_Int_Tables_number        8
#_symmetry_space_group_name_H-M    "Cm1'"
_cell_length_a                     5.1674
_cell_length_b                     4.7250
_cell_length_c                     4.0310
_cell_angle_alpha                  90.0000
_cell_angle_beta                   124.7331
_cell_angle_gamma                  90.0000

loop_
_symmetry_equiv_pos_site_id
_symmetry_equiv_pos_as_xyz
   1   x,y,z
   2   x+1/2,y+1/2,z
   3   x,-y,z
   4   x+1/2,-y+1/2,z

loop_
_atom_site_label
_atom_site_type_symbol
_atom_site_fract_x
_atom_site_fract_y
_atom_site_fract_z
_atom_site_occupancy
C1 C 0.02184 0.00000 0.00561 1.0000
Mg1 Mg 0.20812 0.00000 0.67432 1.0000
Mg2 Mg 0.65887 0.00000 0.33656 1.0000
O1 O 0.87994 0.00000 0.16820 1.0000
O2 O 0.31844 0.00000 0.27394 1.0000
O3 O -0.04361 0.22346 0.77068 1.0000
